test_data/adjacent/opendss/ieee30_generators.dss
! IEEE 30 Bus Generator Definitions (OpenDSS format)

New Generator.B2  Bus1=B2  kV=132 kW=40000 Model=3 Vpu=1.045 Maxkvar=50000 Minkvar=-40000
New Generator.B5  Bus1=B5  kV=132 kW=1     Model=3 Vpu=1.01  Maxkvar=40000 Minkvar=-40000
New Generator.B8  Bus1=B8  kV=132 kW=1     Model=3 Vpu=1.01  Maxkvar=40000 Minkvar=-10000
New Generator.B11 Bus1=B11 kV=11  kW=1     Model=3 Vpu=1.082 Maxkvar=24000 Minkvar=-6000
New Generator.B13 Bus1=B13 kV=11  kW=1     Model=3 Vpu=1.071 Maxkvar=24000 Minkvar=-6000
